Flow Title=Effective Multi-Profile 2018
Version=Version 3.0.1  May 2012
Number of Profiles= 4 
Profile Names=10PCT_10yr, 2PCT_50yr, 1PCT_100yr, 0.2PCT_500yr
River Rch & RM=P100-00-00,P100-00-00_0010 ,228675.4
     210     308     357     500
River Rch & RM=P100-00-00,P100-00-00_0010 ,228484.7
     215     315     366     512
River Rch & RM=P100-00-00,P100-00-00_0010 ,228436.2
     228     334     389     544
River Rch & RM=P100-00-00,P100-00-00_0010 ,227921  
     251     368     427     598
River Rch & RM=P100-00-00,P100-00-00_0010 ,227282.4
     273     401     466     652
River Rch & RM=P100-00-00,P100-00-00_0010 ,226694.3
     286     419     487     681
River Rch & RM=P100-00-00,P100-00-00_0010 ,226400.3
     306     449     522     730
River Rch & RM=P100-00-00,P100-00-00_0010 ,225939.1
     327     481     558     781
River Rch & RM=P100-00-00,P100-00-00_0010 ,225480  
     344     505     587     821
River Rch & RM=P100-00-00,P100-00-00_0010 ,225142.8
     361     529     615     860
River Rch & RM=P100-00-00,P100-00-00_0010 ,224949.2
     390     572     664     929
River Rch & RM=P100-00-00,P100-00-00_0010 ,224308.4
     408     599     696     973
River Rch & RM=P100-00-00,P100-00-00_0010 ,223997.9
     469     688     800    1119
River Rch & RM=P100-00-00,P100-00-00_0010 ,223061.5
     552     810     941    1316
River Rch & RM=P100-00-00,P100-00-00_0010 ,221964.2
     615     903    1049    1468
River Rch & RM=P100-00-00,P100-00-00_0010 ,221230.4
     638     937    1088    1523
River Rch & RM=P100-00-00,P100-00-00_0010 ,220984.2
     673     987    1147    1604
River Rch & RM=P100-00-00,P100-00-00_0010 ,220631.9
     711    1044    1212    1696
River Rch & RM=P100-00-00,P100-00-00_0010 ,220257.4
     739    1084    1260    1762
River Rch & RM=P100-00-00,P100-00-00_0010 ,219998.9
     767    1126    1308    1830
River Rch & RM=P100-00-00,P100-00-00_0010 ,219744.4
    1170    1694    1962    2714
River Rch & RM=P100-00-00,P100-00-00_0010 ,215936.4
    1845    2354    2676    3747
River Rch & RM=P100-00-00,P100-00-00_0010 ,213673.1
    2003    2598    2942    3774
River Rch & RM=P100-00-00,P100-00-00_0010 ,211630.6
    2097    2745    3102    3789
River Rch & RM=P100-00-00,P100-00-00_0010 ,210022.7
    2299    3046    3461    4290
River Rch & RM=P100-00-00,P100-00-00_0010 ,209411  
    2663    3597    4122    5233
River Rch & RM=P100-00-00,P100-00-00_0010 ,209281.4
    2813    3826    4359    5557
River Rch & RM=P100-00-00,P100-00-00_0010 ,208303.8
    2933    4011    4549    5817
River Rch & RM=P100-00-00,P100-00-00_0010 ,207557.1
    3051    4193    4735    6074
River Rch & RM=P100-00-00,P100-00-00_0010 ,206854.1
    3169    4377    4922    6333
River Rch & RM=P100-00-00,P100-00-00_0010 ,206174  
    3324    4586    5150    6638
River Rch & RM=P100-00-00,P100-00-00_0010 ,204744.1
    3425    4720    5296    6834
River Rch & RM=P100-00-00,P100-00-00_0010 ,203825.7
    3529    4859    5447    7037
River Rch & RM=P100-00-00,P100-00-00_0010 ,202904.2
    3529    4891    5496    7173
River Rch & RM=P100-00-00,P100-00-00_0010 ,199501.1
    3529    4925    5548    7318
River Rch & RM=P100-00-00,P100-00-00_0010 ,197172.9
    3529    4941    5572    7386
River Rch & RM=P100-00-00,P100-00-00_0010 ,196097  
    3529    4975    5625    7535
River Rch & RM=P100-00-00,P100-00-00_0010 ,193896.3
    3529    4987    5644    7590
River Rch & RM=P100-00-00,P100-00-00_0010 ,192935.6
    4617    5616    5906    7929
River Rch & RM=P100-00-00,P100-00-00_0010 ,186609.7
    4663    5633    5917    7929
River Rch & RM=P100-00-00,P100-00-00_0010 ,185578.7
    4770    5671    5943    7929
River Rch & RM=P100-00-00,P100-00-00_0010 ,183348.2
    5693    7142    7687    9040
River Rch & RM=P100-00-00,P100-00-00_0010 ,181739.5
    5786    7268    7835    9240
River Rch & RM=P100-00-00,P100-00-00_0010 ,179921.2
    5853    7360    7943    9388
River Rch & RM=P100-00-00,P100-00-00_0010 ,178661.5
    5916    7446    8044    9525
River Rch & RM=P100-00-00,P100-00-00_0010 ,177406.7
    5972    7523    8134    9648
River Rch & RM=P100-00-00,P100-00-00_0010 ,176342.1
    6020    7588    8211    9753
River Rch & RM=P100-00-00,P100-00-00_0010 ,175549.5
    6092    7688    8328    9914
River Rch & RM=P100-00-00,P100-00-00_0010 ,174086.8
    6150    7767    8421   10042
River Rch & RM=P100-00-00,P100-00-00_0010 ,173023.1
    6917    9040    9755   12208
River Rch & RM=P100-00-00,P100-00-00_0010 ,171583.6
    7071    9298   10062   12508
River Rch & RM=P100-00-00,P100-00-00_0010 ,169319.2
   11592   15973   18532   23457
River Rch & RM=P100-00-00,P100-00-00_0010 ,161801.4
   11871   16415   19098   24108
River Rch & RM=P100-00-00,P100-00-00_0010 ,157981.7
   12075   16168   18679   23048
River Rch & RM=P100-00-00,P100-00-00_0010 ,155378.8
   12446   16738   19513   24583
River Rch & RM=P100-00-00,P100-00-00_0010 ,151806.5
   12701   17269   20274   25284
River Rch & RM=P100-00-00,P100-00-00_0010 ,142362  
   13265   18318   21485   26954
River Rch & RM=P100-00-00,P100-00-00_0010 ,132316.5
   14969   18952   22991   29052
River Rch & RM=P100-00-00,P100-00-00_0010 ,122757.9
   15118   18989   22991   29327
River Rch & RM=P100-00-00,P100-00-00_0010 ,111431.6
   15522   19544   23276   30552
River Rch & RM=P100-00-00,P100-00-00_0010 ,100298.8
   21042   27399   31669   45828
River Rch & RM=P100-00-00,P100-00-00_0010 ,85105.8 
   21748   28541   32258   47107
River Rch & RM=P100-00-00,P100-00-00_0010 ,81700.8 
   22123   29100   32565   47165
River Rch & RM=P100-00-00,P100-00-00_0010 ,71993.7 
   22944   29725   33098   47684
River Rch & RM=P100-00-00,P100-00-00_0010 ,64048.7 
   32159   40326   44000   60382
River Rch & RM=P100-00-00,P100-00-00_0010 ,52958   
   32682   40973   44832   60382
River Rch & RM=P100-00-00,P100-00-00_0010 ,46018.3 
   32810   41148   45118   60382
River Rch & RM=P100-00-00,P100-00-00_0010 ,43183.7 
   32923   41326   45456   60382
River Rch & RM=P100-00-00,P100-00-00_0010 ,38132   
   33762   42937   48012   61567
River Rch & RM=P100-00-00,P100-00-00_0010 ,19924.3 
   33914   43247   48703   61832
Boundary for River Rch & Prof#=P100-00-00,P100-00-00_0010 , 1 
Up Type= 0 
Dn Type= 3 
Dn Slope=.00005
Boundary for River Rch & Prof#=P100-00-00,P100-00-00_0010 , 2 
Up Type= 0 
Dn Type= 3 
Dn Slope=.00005
Boundary for River Rch & Prof#=P100-00-00,P100-00-00_0010 , 3 
Up Type= 0 
Dn Type= 3 
Dn Slope=.00005
Boundary for River Rch & Prof#=P100-00-00,P100-00-00_0010 , 4 
Up Type= 0 
Dn Type= 3 
Dn Slope=.000052
DSS Import StartDate=
DSS Import StartTime=
DSS Import EndDate=
DSS Import EndTime=
DSS Import GetInterval= 0 
DSS Import Interval=
DSS Import GetPeak= 0 
DSS Import FillOption= 0 
