Flow Title=Effective Floodway 2018
Version=Version 3.0.1  May 2012
Number of Profiles= 2 
Profile Names=1PCT_100yr,Floodway
River Rch & RM=P100-00-00,P100-00-00_0010 ,228675.4
     357     357
River Rch & RM=P100-00-00,P100-00-00_0010 ,228484.7
     366     366
River Rch & RM=P100-00-00,P100-00-00_0010 ,228436.2
     389     389
River Rch & RM=P100-00-00,P100-00-00_0010 ,227921  
     427     427
River Rch & RM=P100-00-00,P100-00-00_0010 ,227282.4
     466     466
River Rch & RM=P100-00-00,P100-00-00_0010 ,226694.3
     487     487
River Rch & RM=P100-00-00,P100-00-00_0010 ,226400.3
     522     522
River Rch & RM=P100-00-00,P100-00-00_0010 ,225939.1
     558     558
River Rch & RM=P100-00-00,P100-00-00_0010 ,225480  
     587     587
River Rch & RM=P100-00-00,P100-00-00_0010 ,225142.8
     615     615
River Rch & RM=P100-00-00,P100-00-00_0010 ,224949.2
     664     664
River Rch & RM=P100-00-00,P100-00-00_0010 ,224308.4
     696     696
River Rch & RM=P100-00-00,P100-00-00_0010 ,223997.9
     800     800
River Rch & RM=P100-00-00,P100-00-00_0010 ,223061.5
     941     941
River Rch & RM=P100-00-00,P100-00-00_0010 ,221964.2
    1049    1049
River Rch & RM=P100-00-00,P100-00-00_0010 ,221230.4
    1088    1088
River Rch & RM=P100-00-00,P100-00-00_0010 ,220984.2
    1147    1147
River Rch & RM=P100-00-00,P100-00-00_0010 ,220631.9
    1212    1212
River Rch & RM=P100-00-00,P100-00-00_0010 ,220257.4
    1260    1260
River Rch & RM=P100-00-00,P100-00-00_0010 ,219998.9
    1308    1308
River Rch & RM=P100-00-00,P100-00-00_0010 ,219744.4
    1962    1962
River Rch & RM=P100-00-00,P100-00-00_0010 ,215936.4
    2676    2676
River Rch & RM=P100-00-00,P100-00-00_0010 ,213673.1
    2942    2942
River Rch & RM=P100-00-00,P100-00-00_0010 ,211630.6
    3102    3102
River Rch & RM=P100-00-00,P100-00-00_0010 ,210022.7
    3461    3461
River Rch & RM=P100-00-00,P100-00-00_0010 ,209411  
    4122    4122
River Rch & RM=P100-00-00,P100-00-00_0010 ,209281.4
    4359    4359
River Rch & RM=P100-00-00,P100-00-00_0010 ,208303.8
    4549    4549
River Rch & RM=P100-00-00,P100-00-00_0010 ,207557.1
    4735    4735
River Rch & RM=P100-00-00,P100-00-00_0010 ,206854.1
    4922    4922
River Rch & RM=P100-00-00,P100-00-00_0010 ,206174  
    5150    5150
River Rch & RM=P100-00-00,P100-00-00_0010 ,204744.1
    5296    5296
River Rch & RM=P100-00-00,P100-00-00_0010 ,203825.7
    5447    5447
River Rch & RM=P100-00-00,P100-00-00_0010 ,202904.2
    5496    5496
River Rch & RM=P100-00-00,P100-00-00_0010 ,199501.1
    5548    5548
River Rch & RM=P100-00-00,P100-00-00_0010 ,197172.9
    5572    5572
River Rch & RM=P100-00-00,P100-00-00_0010 ,196097  
    5625    5625
River Rch & RM=P100-00-00,P100-00-00_0010 ,193896.3
    5644    5644
River Rch & RM=P100-00-00,P100-00-00_0010 ,192935.6
    5906    5906
River Rch & RM=P100-00-00,P100-00-00_0010 ,186609.7
    5917    5917
River Rch & RM=P100-00-00,P100-00-00_0010 ,185578.7
    5943    5943
River Rch & RM=P100-00-00,P100-00-00_0010 ,183348.2
    7687    7687
River Rch & RM=P100-00-00,P100-00-00_0010 ,181739.5
    7835    7835
River Rch & RM=P100-00-00,P100-00-00_0010 ,179921.2
    7943    7943
River Rch & RM=P100-00-00,P100-00-00_0010 ,178661.5
    8044    8044
River Rch & RM=P100-00-00,P100-00-00_0010 ,177406.7
    8134    8134
River Rch & RM=P100-00-00,P100-00-00_0010 ,176342.1
    8211    8211
River Rch & RM=P100-00-00,P100-00-00_0010 ,175549.5
    8328    8328
River Rch & RM=P100-00-00,P100-00-00_0010 ,174086.8
    8421    8421
River Rch & RM=P100-00-00,P100-00-00_0010 ,173023.1
    9755    9755
River Rch & RM=P100-00-00,P100-00-00_0010 ,171583.6
   10062   10062
River Rch & RM=P100-00-00,P100-00-00_0010 ,169319.2
   18532   18532
River Rch & RM=P100-00-00,P100-00-00_0010 ,161801.4
   19098   19098
River Rch & RM=P100-00-00,P100-00-00_0010 ,157981.7
   18679   18679
River Rch & RM=P100-00-00,P100-00-00_0010 ,155378.8
   19513   19513
River Rch & RM=P100-00-00,P100-00-00_0010 ,151806.5
   20274   20274
River Rch & RM=P100-00-00,P100-00-00_0010 ,142362  
   21485   21485
River Rch & RM=P100-00-00,P100-00-00_0010 ,132316.5
   22991   22991
River Rch & RM=P100-00-00,P100-00-00_0010 ,122757.9
   22991   22991
River Rch & RM=P100-00-00,P100-00-00_0010 ,111431.6
   23276   23276
River Rch & RM=P100-00-00,P100-00-00_0010 ,100298.8
   31669   31669
River Rch & RM=P100-00-00,P100-00-00_0010 ,85105.8 
   32258   32258
River Rch & RM=P100-00-00,P100-00-00_0010 ,81700.8 
   32565   32565
River Rch & RM=P100-00-00,P100-00-00_0010 ,71993.7 
   33098   33098
River Rch & RM=P100-00-00,P100-00-00_0010 ,64048.7 
   44000   44000
River Rch & RM=P100-00-00,P100-00-00_0010 ,52958   
   44832   44832
River Rch & RM=P100-00-00,P100-00-00_0010 ,46018.3 
   45118   45118
River Rch & RM=P100-00-00,P100-00-00_0010 ,43183.7 
   45456   45456
River Rch & RM=P100-00-00,P100-00-00_0010 ,38132   
   48012   48012
River Rch & RM=P100-00-00,P100-00-00_0010 ,19924.3 
   48703   48703
Boundary for River Rch & Prof#=P100-00-00,P100-00-00_0010 , 1 
Up Type= 0 
Dn Type= 3 
Dn Slope=.00005
Boundary for River Rch & Prof#=P100-00-00,P100-00-00_0010 , 2 
Up Type= 0 
Dn Type= 3 
Dn Slope=.00005
DSS Import StartDate=
DSS Import StartTime=
DSS Import EndDate=
DSS Import EndTime=
DSS Import GetInterval= 0 
DSS Import Interval=
DSS Import GetPeak= 0 
DSS Import FillOption= 0 
