Geom Title=P100-00-00 2018
Program Version=5.03
Viewing Rectangle= 3048443.2707 , 3189412.2993 , 13916079.3271 , 13838190.3829 

River Reach=P100-00-00      ,P100-00-00_0010 
Reach XY= 1784 
       3051008.1     13910827.73      3051008.75       13910809.
      3051010.75       13910772.      3051012.25       13910729.
      3051014.25       13910689.        3051015.       13910660.
        3051019.       13910577.      3051024.25       13910517.
       3051043.5       13910001.      3051046.75       13909965.
        3051067.       13909937.      3051198.25       13909817.
      3051261.25       13909766.       3051310.5       13909708.
      3051373.25       13909661.      3051442.25       13909629.
      3051521.25       13909614.        3051626.       13909605.
       3051728.5       13909602.      3051896.25       13909574.
      3051995.75       13909548.       3052085.5       13909500.
        3052201.       13909398.        3052261.       13909340.
       3052300.5       13909290.      3052342.75       13909008.
      3052379.75       13908774.      3052426.75       13908475.
        3052453.       13908281.        3052463.       13908234.
      3052488.25       13908162.      3052532.75       13908068.
        3052607.       13907953.      3052647.25       13907874.
       3052695.5       13907783.        3052736.       13907713.
      3052854.75       13907475.        3052877.       13907435.
        3052896.       13907410.      3052923.75       13907399.
      3052968.25       13907399.        3053064.       13907398.
      3053166.25       13907398.      3053285.25       13907402.
      3053412.25       13907410.       3053551.5       13907410.
       3054033.5       13907422.        3055839.       13907469.
        3055874.       13907469.        3055912.       13907465.
      3055947.99     13907454.25      3055987.46     13907445.56
      3056023.93     13907435.43      3056064.45     13907415.17
      3056098.89     13907398.96       3056131.3     13907368.57
      3056173.85      13907332.1      3056273.12     13907251.07
        3056318.       13907206.        3056345.       13907184.
        3056378.       13907165.        3056414.       13907150.
        3056451.       13907140.        3056489.       13907136.
        3056528.       13907137.        3056566.       13907143.
        3056602.       13907155.       3056678.5       13907194.
        3056754.       13907226.      3056799.75       13907247.
        3056838.       13907279.        3056878.       13907311.
        3056914.       13907329.      3056978.25       13907352.
       3057085.5       13907388.      3057236.75       13907422.
      3057429.25       13907483.        3057562.       13907511.
        3057861.       13907601.       3058181.5       13907688.
       3058595.5       13907802.      3058913.25       13907894.
      3058983.75       13907911.      3059195.75       13907974.
        3060460.       13908323.        3061019.       13908488.
        3061083.       13908512.        3061474.       13908631.
      3061825.75       13908730.      3061933.75       13908753.
       3062023.5       13908770.        3062092.       13908771.
       3062201.5       13908770.        3062642.       13908788.
        3063035.       13908804.      3063167.25       13908808.
      3063219.25       13908815.      3063275.25       13908815.
      3063364.25       13908827.        3063418.       13908841.
        3063472.       13908870.       3063544.5       13908924.
      3063625.25       13908970.      3063691.75       13908997.
       3063849.5       13909041.      3064502.25       13909198.
      3064929.25       13909303.        3065026.       13909337.
      3065122.75       13909390.      3065198.25       13909431.
      3065264.25       13909452.        3065332.       13909451.
       3065459.5       13909441.       3065593.5       13909442.
        3065738.       13909433.        3065780.       13909431.
      3065841.25       13909433.        3065878.       13909436.
        3065920.       13909442.        3065961.       13909449.
        3066004.       13909460.      3066288.25       13909493.
      3066424.75       13909496.       3066549.5       13909482.
      3066640.25       13909470.      3066724.75       13909460.
      3066803.75       13909463.        3066883.       13909467.
      3066959.25       13909469.      3067031.25       13909478.
      3067089.25       13909488.       3067136.5       13909497.
        3067172.       13909506.      3067510.75       13909530.
      3067622.46     13909542.41      3067748.07     13909528.23
      3067833.16      13909526.2       3067985.1     13909487.71
        3068082.       13909452.        3068627.       13909218.
      3068872.47     13909116.96      3069015.42     13909094.82
      3069117.75       13909086.      3069229.03      13909096.7
      3069364.77     13909112.91       3069547.5       13909132.
      3069707.16     13909147.35      3069798.32     13909149.38
      3069934.06      13909151.4      3070045.49     13909133.17
      3070155.25       13909111.       3070257.5       13909087.
      3070352.25       13909081.       3070439.5       13909083.
      3070524.75       13909092.        3070627.       13909092.
       3070759.5       13909074.      3070868.25       13909051.
      3070992.75       13909025.        3071116.       13908986.
      3071230.75       13908933.        3071438.       13908826.
        3071584.       13908737.      3071680.25       13908658.
        3071761.       13908586.      3071839.75       13908530.
      3071907.75       13908488.      3071970.25       13908453.
      3072037.25       13908418.      3072093.75       13908391.
        3072161.       13908364.        3072236.       13908336.
       3072287.5       13908321.       3072365.5       13908294.
       3072435.5       13908270.      3072502.75       13908238.
      3072563.25       13908213.        3072640.       13908187.
      3072691.25       13908167.      3072728.75       13908157.
      3072797.25       13908140.        3072876.       13908135.
        3073174.       13908144.      3073702.32     13908124.25
      3073957.59      13908120.2      3074066.99     13908103.99
      3074219.75       13908076.        3074335.       13908076.
      3074455.75       13908110.        3074631.       13908189.
      3074686.25       13908228.       3075045.5       13908347.
      3075131.25       13908375.      3075248.91      13908386.1
      3075387.97     13908381.13       3075489.2     13908365.34
      3075541.88     13908365.34       3075590.5     13908349.13
        3075739.       13908309.      3075846.25       13908309.
      3076012.75       13908341.       3076151.5       13908381.
      3076222.25       13908398.      3076324.25       13908447.
        3076475.       13908520.      3076607.25       13908583.
      3076800.25       13908676.        3076901.       13908721.
      3076955.75       13908767.      3077003.25       13908853.
        3077058.       13908960.      3077108.75       13909027.
       3077163.5       13909069.        3077279.       13909097.
       3077401.5       13909111.        3077506.       13909124.
      3077620.49     13909131.14      3077731.92      13909151.4
       3077902.1     13909147.35      3077946.67      13909151.4
       3078011.5     13909163.56        3078096.       13909162.
      3078170.25       13909149.      3078244.75       13909124.
        3078314.       13909067.      3078360.75       13908982.
       3078379.5       13908956.        3078401.       13908938.
       3078422.5       13908920.       3078449.5       13908907.
      3078473.75       13908897.       3078491.5       13908885.
       3078516.5       13908864.      3078548.25       13908847.
        3078584.       13908836.      3078607.75       13908830.
        3078626.       13908826.      3078649.67     13908845.48
      3078669.93     13908851.56      3078702.35     13908839.41
      3078736.71     13908821.99        3078768.       13908817.
      3078799.25       13908814.      3078852.25       13908817.
        3078905.       13908827.        3078965.       13908834.
       3079129.5       13908843.      3079281.77     13908845.48
        3079364.       13908827.      3079433.71     13908811.04
      3079494.49     13908809.02      3079574.79     13908818.42
      3079715.32     13908847.51      3079786.23     13908849.54
      3079895.52     13908862.66      3079972.75       13908867.
      3080025.75       13908863.      3080091.75       13908843.
       3080140.5       13908816.      3080240.25       13908745.
      3080279.25       13908721.       3080332.5       13908708.
        3080494.       13908619.        3080517.       13908593.
      3080523.75       13908560.        3080649.       13908487.
      3080860.25       13908384.        3081028.       13908327.
      3081206.25       13908288.       3081477.5       13908242.
       3081529.5       13908226.      3081604.75       13908218.
        3081695.       13908216.      3081753.75       13908219.
      3081838.75       13908216.      3081933.75       13908204.
      3082025.25       13908195.        3082119.       13908186.
      3082231.54       13908183.      3082322.71      13908191.1
      3082417.93     13908185.03      3082472.63     13908170.85
       3082558.5       13908145.      3082686.25       13908132.
        3082883.       13908119.       3083001.5       13908100.
       3083136.5       13908085.      3083240.46     13908059.42
      3083301.24     13908037.13       3083376.2       13908027.
      3083445.08     13908016.87      3083520.04     13908012.82
      3083645.65     13908002.69      3083815.83     13907986.48
        3083872.       13908011.       3083998.5       13907992.
      3084054.89      13908018.9      3084202.79     13908006.74
      3084372.97     13907994.59      3084571.51     13907974.33
      3084695.09     13907950.02      3084826.25       13907908.
      3084948.25       13907892.      3085362.75       13907858.
       3085481.5       13907833.      3085533.75       13907811.
        3085588.       13907799.      3085620.75       13907801.
        3085646.       13907811.      3085675.65     13907844.67
      3085701.99     13907856.82      3085752.63     13907848.72
      3085878.24     13907826.43      3085928.89     13907814.28
      3085969.41     13907794.02      3086009.93     13907785.92
      3086048.42     13907781.86      3086082.86     13907787.94
      3086111.23     13907802.12      3086131.49      13907800.1
      3086167.95     13907798.07       3086210.5     13907796.05
      3086281.41     13907789.97      3086360.42     13907771.73
       3086430.5       13907740.       3086504.5       13907715.
      3086580.25       13907696.        3086673.       13907692.
      3086765.75       13907680.      3086848.75       13907658.
       3086904.5       13907622.      3086961.75       13907568.
      3087008.25       13907514.      3087055.75       13907465.
      3087107.25       13907401.        3087168.       13907328.
      3087240.25       13907251.      3087384.25       13907135.
      3087554.75       13907004.       3087585.5       13906969.
      3087616.25       13906934.      3087654.75       13906904.
       3087688.5       13906892.      3087714.75       13906877.
      3087752.75       13906852.      3087789.25       13906817.
      3087837.75       13906781.       3087922.5       13906721.
      3087997.38     13906671.65      3088076.39     13906623.02
      3088171.61     13906570.35      3088238.47     13906554.14
       3088303.3     13906564.27      3088380.28     13906580.48
       3088467.4     13906608.84      3088538.31     13906633.15
      3088613.27     13906663.54      3088653.79      13906675.7
      3088744.25       13906707.      3088842.25       13906734.
      3089021.75       13906775.       3089069.1     13906787.13
      3089131.91     13906774.97      3089196.74     13906758.76
      3089259.54     13906718.24      3089291.96      13906675.7
      3089333.61     13906600.71        3089373.       13906550.
       3089428.5       13906491.        3089466.       13906430.
      3089489.75       13906382.      3089526.25       13906332.
       3089570.5       13906265.       3089612.5       13906206.
      3089662.25       13906135.        3089712.       13906064.
       3089757.5       13906018.        3089804.       13905980.
      3089834.75       13905957.       3089859.5       13905925.
       3089911.5       13905828.        3089964.       13905769.
      3090018.25       13905694.      3090067.25       13905615.
        3090143.       13905520.      3090299.75       13905389.
        3090345.       13905349.       3090380.5       13905316.
      3090416.25       13905283.        3090435.       13905260.
        3090468.       13905192.      3090497.75       13905145.
       3090532.5       13905099.        3090569.       13905050.
       3090607.5       13905011.       3090627.5       13904980.
      3090653.34     13904960.22       3090669.6     13904941.49
      3090706.07      13904919.2      3090738.48     13904905.02
      3090764.82     13904896.92      3090815.47     13904886.79
      3090870.17     13904886.79      3090949.18     13904917.18
      3091020.09     13904949.59        3091099.       13904989.
       3091189.5       13905031.        3091296.       13905071.
      3091413.25       13905123.      3091499.25       13905164.
      3091602.25       13905198.        3091712.       13905212.
      3091828.75       13905226.       3091945.5       13905233.
        3092063.       13905266.      3092158.25       13905322.
       3092227.5       13905400.      3092317.25       13905488.
        3092396.       13905553.        3092433.       13905597.
       3092480.5       13905653.       3092515.5       13905693.
       3092571.5       13905746.        3092620.       13905795.
       3092669.5       13905838.        3092715.       13905894.
      3092748.25       13905934.      3092785.75       13905972.
      3092816.25       13905995.      3092851.25       13906008.
       3092911.5       13906033.      3092955.75       13906043.
      3093003.25       13906067.      3093040.75       13906091.
        3093085.       13906125.      3093159.75       13906186.
        3093272.       13906280.       3093461.5       13906476.
      3093540.75       13906548.      3093619.75       13906602.
      3093693.75       13906639.      3093750.75       13906662.
       3093830.5       13906703.        3093881.       13906747.
        3093917.       13906766.      3093966.75       13906782.
       3094016.5       13906806.        3094242.       13906989.
      3094608.75       13907240.      3094752.25       13907327.
      3095205.25       13907612.      3095284.25       13907671.
      3095383.75       13907707.       3095452.5       13907738.
       3095581.5       13907807.      3095677.25       13907874.
      3095731.25       13907903.      3095782.25       13907929.
      3095904.64     13907980.41      3096285.52     13908156.66
        3096443.       13908196.       3096565.1      13908237.7
      3096652.21     13908286.32      3096781.87      13908347.1
      3096946.75       13908429.       3097004.5       13908473.
      3097025.25       13908499.      3097089.82     13908541.59
       3097150.6     13908569.96      3097233.66     13908608.45
       3097322.8     13908638.84      3097429.75       13908661.
        3097500.       13908680.       3097555.5       13908705.
       3097629.5       13908765.      3097661.75       13908810.
        3097691.       13908830.       3097736.5       13908849.
       3097758.5       13908871.        3097770.       13908902.
        3097773.       13908943.       3097796.5       13908980.
        3097844.       13909013.        3097899.       13909041.
        3097972.       13909104.      3098030.25       13909168.
      3098054.75       13909221.      3098069.25       13909285.
        3098073.       13909345.        3098074.       13909399.
      3098083.75       13909445.      3098103.75       13909497.
        3098142.       13909544.      3098208.25       13909624.
        3098295.       13909723.       3098336.5       13909748.
        3098364.       13909776.      3098450.25       13909912.
       3098456.5       13909967.      3098496.75       13910065.
      3098540.25       13910130.      3098591.25       13910189.
        3098659.       13910234.        3098712.       13910313.
       3098754.5       13910416.      3098796.25       13910497.
      3098858.75       13910582.        3098947.       13910677.
        3098994.       13910761.      3099048.25       13910848.
      3099079.29     13910938.28      3099093.48     13911029.45
      3099099.55     13911114.54      3099109.68     13911185.45
       3099142.1     13911242.18      3099174.51     13911315.11
       3099252.5       13911402.      3099290.75       13911445.
       3099341.5       13911500.       3099385.5       13911530.
       3099444.5       13911570.       3099497.5       13911607.
       3099549.5       13911631.       3099600.5       13911642.
        3099663.       13911641.      3099714.75       13911633.
       3099761.5       13911634.        3099806.       13911640.
      3099852.75       13911652.      3099887.75       13911670.
      3099913.25       13911689.      3099931.25       13911709.
      3099948.25       13911738.      3099967.25       13911765.
      3099986.25       13911786.       3100007.5       13911804.
       3100041.5       13911831.        3100058.       13911847.
       3100096.5       13911883.      3100156.75       13911915.
      3100216.75       13911950.      3100292.75       13911989.
      3100372.75       13912017.       3100425.5       13912025.
        3100482.       13912026.      3100533.25       13912025.
       3100577.5       13912031.       3100630.5       13912057.
      3100674.75       13912094.        3100717.       13912137.
      3100768.75       13912175.      3100830.75       13912214.
      3100883.75       13912244.      3100933.25       13912261.
        3100958.       13912267.      3100982.75       13912271.
       3101014.5       13912275.      3101156.25       13912294.
      3101264.25       13912303.        3101350.       13912317.
       3101413.5       13912333.      3101464.75       13912359.
      3101496.75       13912388.      3101514.25       13912427.
      3101540.75       13912458.        3101571.       13912481.
      3101606.25       13912508.      3101643.25       13912542.
      3101682.25       13912584.      3101712.25       13912618.
      3101730.75       13912651.       3101763.5       13912656.
      3101807.75       13912677.      3101853.75       13912709.
       3101894.5       13912735.       3101931.5       13912758.
       3101984.5       13912781.      3102041.25       13912795.
        3102113.       13912814.       3102208.5       13912821.
      3102301.75       13912823.      3102363.75       13912821.
      3102447.25       13912825.      3102565.25       13912830.
        3102659.       13912842.      3102740.25       13912850.
        3102817.       13912846.      3102967.25       13912830.
       3103080.5       13912805.      3103177.75       13912765.
      3103269.75       13912690.        3103358.       13912622.
      3103451.25       13912527.       3103616.5       13912380.
      3103770.75       13912229.      3103958.25       13912057.
      3104085.75       13911970.       3104208.5       13911932.
      3104354.75       13911910.       3104527.5       13911884.
        3104753.       13911866.       3104947.5       13911836.
      3105153.25       13911811.      3105373.75       13911789.
      3105597.75       13911752.       3105751.5       13911723.
       3105850.5       13911688.       3105926.5       13911633.
        3105976.       13911574.       3106018.5       13911507.
       3106094.5       13911392.       3106125.5       13911333.
      3106185.51     13911217.54      3106243.03     13911124.67
      3106330.15     13910966.65      3106413.51     13910794.55
       3106502.5       13910645.        3106536.       13910576.
       3106601.5       13910466.      3106682.25       13910368.
       3106803.5       13910276.        3106921.       13910217.
        3107068.       13910191.      3107255.25       13910144.
       3107453.5       13910085.        3107663.       13910019.
      3107861.25       13909952.      3108050.25       13909912.
      3108096.25       13909912.        3108144.       13909914.
      3108191.75       13909909.        3108243.       13909887.
       3108285.5       13909863.        3108328.       13909836.
       3108391.5       13909792.       3108467.5       13909730.
       3108522.5       13909677.        3108556.       13909644.
        3108640.       13909563.      3108724.25       13909486.
      3108790.75       13909391.        3108875.       13909283.
        3108959.       13909188.      3109029.75       13909110.
      3109095.75       13909033.       3109152.5       13908960.
        3109206.       13908906.       3109269.5       13908867.
      3109330.75       13908828.      3109404.25       13908798.
       3109481.5       13908791.        3109555.       13908791.
       3109617.5       13908791.      3109701.32     13908798.89
      3109883.65     13908809.02      3109978.87     13908809.02
      3110041.68     13908847.51      3110111.75       13908835.
        3110500.       13908847.      3111005.75       13908859.
       3111317.5       13908873.        3111533.       13908893.
      3111633.25       13908888.      3111737.25       13908921.
      3111831.75       13908975.       3111904.5       13909055.
      3112060.75       13909315.        3112201.       13909525.
       3112267.5       13909632.      3112326.75       13909732.
       3112422.5       13909879.      3112522.25       13910057.
       3112566.5       13910127.        3112618.       13910186.
      3112647.75       13910216.      3112677.75       13910245.
      3112706.25       13910281.        3112734.       13910307.
       3112764.5       13910338.      3112796.75       13910359.
      3112838.25       13910373.      3112887.25       13910385.
      3112928.75       13910398.        3112970.       13910402.
      3113014.25       13910410.      3113051.25       13910414.
      3113092.75       13910418.      3113128.25       13910423.
      3113182.75       13910434.       3113267.5       13910441.
      3113347.25       13910448.       3113425.5       13910448.
      3113489.75       13910445.      3113554.25       13910438.
      3113629.25       13910427.      3113696.75       13910404.
      3113776.25       13910379.      3113872.25       13910360.
       3113955.5       13910340.       3114047.5       13910324.
      3114123.75       13910323.       3114309.5       13910364.
      3114461.25       13910382.       3114571.5       13910387.
      3114675.01     13910393.31      3114745.92     13910395.33
      3114867.48     13910395.33      3115260.51     13910415.59
      3115765.25       13910437.      3116383.75       13910468.
      3116591.25       13910473.      3116730.75       13910473.
        3116861.       13910487.      3116976.49     13910502.71
      3117045.37     13910510.81      3117120.33     13910518.91
      3117181.11     13910516.89      3117211.49     13910522.97
      3117258.09     13910512.84      3117300.64     13910492.58
      3117331.03     13910484.47      3117365.47     13910458.14
      3117395.75       13910429.       3117420.5       13910399.
      3117441.75       13910368.        3117457.       13910331.
        3117474.       13910291.      3117493.75       13910239.
      3117507.75       13910188.       3117511.5       13910103.
      3117493.25       13910012.      3117474.75       13909920.
      3117477.75       13909862.      3117500.75       13909810.
       3117551.5       13909761.      3117614.25       13909738.
       3117727.5       13909735.      3117860.75       13909750.
        3117998.       13909761.        3118076.       13909761.
       3118146.5       13909739.       3118198.5       13909683.
      3118228.25       13909631.        3118273.       13909460.
        3118310.       13909360.      3118384.25       13909282.
       3118484.5       13909226.      3118651.75       13909181.
        3118764.       13909142.       3119879.5       13908873.
      3120011.25       13908850.      3120215.25       13908768.
        3120314.       13908706.      3120378.25       13908646.
      3120410.75       13908591.      3120436.75       13908528.
       3120759.5       13908033.      3120833.88     13907952.04
      3121302.75       13907435.      3121328.75       13907407.
       3121385.5       13907363.        3121448.       13907341.
      3121521.75       13907334.      3121661.75       13907345.
      3121772.25       13907363.      3122369.25       13907396.
      3123286.25       13907449.      3123704.65     13907461.76
       3123974.1     13907469.87      3124142.25     13907463.79
      3124205.05     13907461.76      3124267.86     13907447.58
       3124308.5       13907427.       3124341.5       13907408.
       3124373.5       13907386.       3124424.5       13907336.
       3124456.5       13907178.      3124460.25       13906947.
        3124464.       13906712.        3124479.       13906509.
      3124503.75       13906266.      3124525.25       13906100.
       3124566.5       13905963.      3124644.75       13905872.
      3124779.25       13905805.        3124937.       13905771.
       3125170.5       13905730.        3125307.       13905709.
        3125348.       13905697.        3125390.       13905683.
        3125430.       13905665.        3125470.       13905645.
        3125508.       13905622.       3125552.5       13905596.
      3125602.75       13905549.        3125651.       13905490.
      3125742.75       13905359.      3125812.75       13905211.
      3125871.75       13905075.       3125967.5       13904894.
      3125981.81     13904823.99      3125979.78     13904724.71
       3125957.5     13904643.68       3125910.9     13904564.66
      3125868.35     13904509.96      3125823.78     13904485.65
        3125765.       13904475.      3125681.25       13904443.
       3125579.5       13904379.      3125474.25       13904281.
        3125401.       13904173.        3125363.       13904046.
      3125361.75       13903916.      3125363.75       13903866.
        3125362.       13903824.       3125360.5       13903777.
       3125360.5       13903711.       3125360.5       13903631.
       3125360.5       13903541.       3125370.5       13903379.
       3125380.5       13903316.       3125392.5       13903253.
       3125407.5       13903190.       3125423.5       13903128.
       3125442.5       13903067.      3125625.75       13902575.
      3125673.25       13902447.        3125693.       13902396.
       3125709.5       13902344.       3125722.5       13902294.
      3125727.75       13902221.      3125820.25       13901916.
       3125891.5       13901689.       3125905.5       13901651.
       3125920.5       13901618.       3125936.5       13901586.
       3125954.5       13901555.       3125973.5       13901526.
       3125994.5       13901497.       3126017.5       13901469.
       3126040.5       13901442.       3126066.5       13901417.
        3126671.       13900878.       3127062.5       13900566.
       3127089.5       13900544.       3127121.5       13900524.
       3127155.5       13900508.       3127191.5       13900496.
       3127228.5       13900488.       3127269.5       13900480.
      3127308.75       13900478.        3127365.       13900465.
      3127424.25       13900449.      3127462.25       13900453.
      3127531.25       13900449.      3127624.75       13900440.
       3127696.5       13900431.      3127771.75       13900428.
      3127829.75       13900435.        3127886.       13900448.
        3127941.       13900469.      3128006.75       13900509.
       3128072.5       13900563.      3128114.75       13900604.
        3128161.       13900631.        3128205.       13900651.
        3128249.       13900664.       3128308.5       13900686.
      3128374.75       13900706.      3128465.75       13900734.
       3128561.5       13900754.      3128675.25       13900758.
       3128795.5       13900758.      3128866.75       13900760.
        3128938.       13900751.      3129009.25       13900740.
       3129129.5       13900723.       3129196.5       13900700.
        3129261.       13900662.        3129339.       13900627.
      3129452.75       13900596.      3129586.25       13900551.
      3129684.25       13900526.       3129753.5       13900522.
      3129820.75       13900513.      3129878.25       13900514.
      3129934.75       13900516.        3130046.       13900515.
      3130198.25       13900520.       3130399.5       13900541.
      3130527.75       13900549.      3130597.75       13900559.
      3130661.75       13900567.      3130710.25       13900569.
        3130766.       13900567.      3130807.75       13900560.
      3130858.75       13900558.      3130902.75       13900555.
      3130943.25       13900545.      3130988.75       13900531.
       3131036.5       13900508.       3131073.5       13900487.