Plan Title=Effective FW 2018
Version=Version 3.0.1  May 2012
Short Identifier=Effective FW
Simulation Date=,,,
Geom File=g01
Flow File=f02
Subcritical Flow
K Sum by GR= 0 
Std Step Tol= 0.01 
Critical Tol= 0.01 
Num of Std Step Trials= 20 
Max Error Tol= 0.3 
Flow Tol Ratio= 0.001 
Split Flow NTrial= 30 
Split Flow Tol= 0.02 
Split Flow Ratio= 0.02 
Log Output Level= 0 
Friction Slope Method= 1 
Unsteady Friction Slope Method= 2 
Parabolic Critical Depth
Global Vel Dist= 0 , 0 , 0 
Global Log Level= 0 
CheckData=True
Encroach Param= 0 ,0,0, 5 
Encroach River=P100-00-00      
Encroach Reach=P100-00-00_0010 
Encroach Node=228675.4
       1    4976  5020.3       0       0       0       0       0       0
       1    4976  5020.3
Encroach Node=228484.7
       1    4976  5020.3       0       0       0       0       0       0
       1    4976  5020.3
Encroach Node=228436.2
       1  4980.1  5022.4       0       0       0       0       0       0
       1  4980.1  5022.4
Encroach Node=228380.9
       1    4972    5050       0       0       0       0       0       0
       1    4972    5050
Encroach Node=228325.7
       1  4980.1  5020.6       0       0       0       0       0       0
       1  4980.1  5020.6
Encroach Node=227921.0
       1  4965.4  5032.9       0       0       0       0       0       0
       1  4965.4  5032.9
Encroach Node=227282.4
       1    4965  5032.9       0       0       0       0       0       0
       1    4965  5032.9
Encroach Node=226694.3
       1    4962    5045       0       0       0       0       0       0
       1    4962    5045
Encroach Node=226400.3
       1    4941    5046       0       0       0       0       0       0
       1    4941    5046
Encroach Node=226342.8
       1    4941    5046       0       0       0       0       0       0
       1    4941    5046
Encroach Node=226285.3
       1    4941    5046       0       0       0       0       0       0
       1    4941    5046
Encroach Node=225939.1
       1  4954.6  5036.7       0       0       0       0       0       0
       1  4954.6  5036.7
Encroach Node=225480.0
       1  4954.6  5036.7       0       0       0       0       0       0
       1  4954.6  5036.7
Encroach Node=225142.8
       1  4954.6  5036.7       0       0       0       0       0       0
       1  4954.6  5036.7
Encroach Node=225131.3
       1  4954.6  5036.7       0       0       0       0       0       0
       1  4954.6  5036.7
Encroach Node=225119.8
       1  4954.6  5036.7       0       0       0       0       0       0
       1  4954.6  5036.7
Encroach Node=224949.2
       1    4965    5033       0       0       0       0       0       0
       1    4965    5033
Encroach Node=224889.7
       1    4965    5033       0       0       0       0       0       0
       1    4965    5033
Encroach Node=224830.2
       1    4965    5033       0       0       0       0       0       0
       1    4965    5033
Encroach Node=224308.4
       1  4954.4  5049.3       0       0       0       0       0       0
       1  4954.4  5049.3
Encroach Node=223997.9
       1  4954.4  5049.3       0       0       0       0       0       0
       1  4954.4  5049.3
Encroach Node=223061.5
       1  4956.8  5053.3       0       0       0       0       0       0
       1  4956.8  5053.3
Encroach Node=221964.2
       1    4960  5049.3       0       0       0       0       0       0
       1    4960  5049.3
Encroach Node=221230.4
       1  4982.7  5058.4       0       0       0       0       0       0
       1  4982.7  5058.4
Encroach Node=220984.2
       1  4982.7  5058.4       0       0       0       0       0       0
       1  4982.7  5058.4
Encroach Node=220925.7
       1  4982.7  5058.4       0       0       0       0       0       0
       1  4982.7  5058.4
Encroach Node=220867.3
       1  4982.7  5058.4       0       0       0       0       0       0
       1  4982.7  5058.4
Encroach Node=220631.9
       1  4933.3  5044.4       0       0       0       0       0       0
       1  4933.3  5044.4
Encroach Node=220575.9
       1  4933.3  5044.4       0       0       0       0       0       0
       1  4933.3  5044.4
Encroach Node=220519.9
       1  4933.3  5044.4       0       0       0       0       0       0
       1  4933.3  5044.4
Encroach Node=220257.4
       1  4952.3  5041.8       0       0       0       0       0       0
       1  4952.3  5041.8
Encroach Node=219998.9
       1  4952.3  5041.8       0       0       0       0       0       0
       1  4952.3  5041.8
Encroach Node=219744.4
       1 4874.51  5041.8       0       0       0       0       0       0
       1 4874.51  5041.8
Encroach Node=219716.4
       1 4874.51  5041.8       0       0       0       0       0       0
       1 4874.51  5041.8
Encroach Node=219688.4
       1 4874.51  5041.8       0       0       0       0       0       0
       1 4874.51  5041.8
Encroach Node=219073.4
       1  4976.7  5024.6       0       0       0       0       0       0
       1  4976.7  5024.6
Encroach Node=218243.5
       1    4800    5250       0       0       0       0       0       0
       1    4800    5250
Encroach Node=218103.7
       1    4830    5400       0       0       0       0       0       0
       1    4830    5400
Encroach Node=218075.2
       1    4830    5400       0       0       0       0       0       0
       1    4830    5400
Encroach Node=218046.7
       1    4830    5400       0       0       0       0       0       0
       1    4830    5400
Encroach Node=217461.8
       1    4750    5400       0       0       0       0       0       0
       1    4750    5400
Encroach Node=217089.5
       1    4725    5650       0       0       0       0       0       0
       1    4725    5650
Encroach Node=216460.9
       1    4700    5040       0       0       0       0       0       0
       1    4700    5040
Encroach Node=215936.4
       1  4975.3  5021.6       0       0       0       0       0       0
       1  4975.3  5021.6
Encroach Node=215326.4
       1    4954    5060       0       0       0       0       0       0
       1    4954    5060
Encroach Node=214983.1
       1    4913    5085       0       0       0       0       0       0
       1    4913    5085
Encroach Node=214927.1
       1    4913    5085       0       0       0       0       0       0
       1    4913    5085
Encroach Node=214871.1
       1    4913    5085       0       0       0       0       0       0
       1    4913    5085
Encroach Node=213673.1
       1    4900    5090       0       0       0       0       0       0
       1    4900    5090
Encroach Node=212608.8
       1    4900    5090       0       0       0       0       0       0
       1    4900    5090
Encroach Node=212060.6
       1    4850    5100       0       0       0       0       0       0
       1    4850    5100
Encroach Node=211630.6
       1    4900    5100       0       0       0       0       0       0
       1    4900    5100
Encroach Node=211602.6
       1    4900    5100       0       0       0       0       0       0
       1    4900    5100
Encroach Node=211574.6
       1    4900    5100       0       0       0       0       0       0
       1    4900    5100
Encroach Node=211066.9
       1    4900    5089       0       0       0       0       0       0
       1    4900    5089
Encroach Node=210776.9
       1    4900    5089       0       0       0       0       0       0
       1    4900    5089
Encroach Node=210486.9
       1    4900    5089       0       0       0       0       0       0
       1    4900    5089
Encroach Node=210022.7
       1    4870    5100       0       0       0       0       0       0
       1    4870    5100
Encroach Node=209411.0
       1    4903    5063       0       0       0       0       0       0
       1    4903    5063
Encroach Node=209391.0
       1    4903    5063       0       0       0       0       0       0
       1    4903    5063
Encroach Node=209371.0
       1    4903    5063       0       0       0       0       0       0
       1    4903    5063
Encroach Node=209281.4
       1    4903    5063       0       0       0       0       0       0
       1    4903    5063
Encroach Node=209256.4
       1    4903    5063       0       0       0       0       0       0
       1    4903    5063
Encroach Node=209231.4
       1    4930    5063       0       0       0       0       0       0
       1    4930    5063
Encroach Node=208303.8
       1    4900    5100       0       0       0       0       0       0
       1    4900    5100
Encroach Node=207557.1
       1    4850    5100       0       0       0       0       0       0
       1    4850    5100
Encroach Node=206854.1
       1    4900    5100       0       0       0       0       0       0
       1    4900    5100
Encroach Node=206174.0
       1    4920    5076       0       0       0       0       0       0
       1    4920    5076
Encroach Node=206145.5
       1    4920    5076       0       0       0       0       0       0
       1    4920    5076
Encroach Node=206117.0
       1    4920    5076       0       0       0       0       0       0
       1    4920    5076
Encroach Node=205188.9
       1    4800    5200       0       0       0       0       0       0
       1    4800    5200
Encroach Node=204744.1
       1    4800    5200       0       0       0       0       0       0
       1    4800    5200
Encroach Node=203825.7
       1    4800    5225       0       0       0       0       0       0
       1    4800    5225
Encroach Node=202904.2
       1    4775    5200       0       0       0       0       0       0
       1    4775    5200
Encroach Node=201967.0
       1    4800    5200       0       0       0       0       0       0
       1    4800    5200
Encroach Node=201733.0
       1    4795    5285       0       0       0       0       0       0
       1    4795    5285
Encroach Node=200823.6
       1    4750    5300       0       0       0       0       0       0
       1    4750    5300
Encroach Node=200063.8
       1    4700    5150       0       0       0       0       0       0
       1    4700    5150
Encroach Node=199501.1
       1    4840    5150       0       0       0       0       0       0
       1    4840    5150
Encroach Node=198785.6
       1  4909.7  5078.8       0       0       0       0       0       0
       1  4909.7  5078.8
Encroach Node=198726.8
       1  4909.7  5078.8       0       0       0       0       0       0
       1  4909.7  5078.8
Encroach Node=198668.1
       1  4909.7  5078.8       0       0       0       0       0       0
       1  4909.7  5078.8
Encroach Node=198192.4
       1  4950.9  5088.6       0       0       0       0       0       0
       1  4950.9  5088.6
Encroach Node=197172.9
       1  4937.5  5078.9       0       0       0       0       0       0
       1  4937.5  5078.9
Encroach Node=196097.0
       1    4935    5090       0       0       0       0       0       0
       1    4935    5090
Encroach Node=194928.6
       1    4755    5145       0       0       0       0       0       0
       1    4755    5145
Encroach Node=194146.5
       1    4920    5550       0       0       0       0       0       0
       1    4920    5550
Encroach Node=193896.3
       1    4900    5550       0       0       0       0       0       0
       1    4900    5550
Encroach Node=193838.8
       1    4900    5550       0       0       0       0       0       0
       1    4900    5550
Encroach Node=193781.3
       1    4900    5550       0       0       0       0       0       0
       1    4900    5550
Encroach Node=192935.6
       1  4952.4    5480       0       0       0       0       0       0
       1  4952.4    5480
Encroach Node=191836.0
       1    4880  5077.3       0       0       0       0       0       0
       1    4880  5077.3
Encroach Node=191278.6
       1    4916  5126.5       0       0       0       0       0       0
       1    4916  5126.5
Encroach Node=190860.1
       1 4944.25 5109.35       0       0       0       0       0       0
       1 4944.25 5109.35
Encroach Node=190848.1
       1 4944.25 5109.35       0       0       0       0       0       0
       1 4944.25 5109.35
Encroach Node=190836.1
       1 4944.25 5109.35       0       0       0       0       0       0
       1 4944.25 5109.35
Encroach Node=190772.0
       1 4923.41 5089.54       0       0       0       0       0       0
       1 4923.41 5089.54
Encroach Node=190739.5
       1 4923.41 5089.54       0       0       0       0       0       0
       1 4923.41 5089.54
Encroach Node=190707.0
       1 4923.41 5089.54       0       0       0       0       0       0
       1 4923.41 5089.54
Encroach Node=189685.2
       1  4931.6    5100       0       0       0       0       0       0
       1  4931.6    5100
Encroach Node=188681.0
       1  4928.4  5090.5       0       0       0       0       0       0
       1  4928.4  5090.5
Encroach Node=187593.9
       1  4907.7  5078.9       0       0       0       0       0       0
       1  4907.7  5078.9
Encroach Node=187053.5
       1  4888.8  5091.6       0       0       0       0       0       0
       1  4888.8  5091.6
Encroach Node=186609.7
       1  4929.4  5091.6       0       0       0       0       0       0
       1  4929.4  5091.6
Encroach Node=186581.7
       1  4929.4  5091.6       0       0       0       0       0       0
       1  4929.4  5091.6
Encroach Node=186553.7
       1  4929.4  5091.6       0       0       0       0       0       0
       1  4929.4  5091.6
Encroach Node=186025.8
       1  4938.6  5100.8       0       0       0       0       0       0
       1  4938.6  5100.8
Encroach Node=185578.7
       1  4938.6  5100.8       0       0       0       0       0       0
       1  4938.6  5100.8
Encroach Node=184592.5
       1 4917.15 5136.68       0       0       0       0       0       0
       1 4917.15 5136.68
Encroach Node=184557.5
       1 4917.15 5136.68       0       0       0       0       0       0
       1 4917.15 5136.68
Encroach Node=184522.5
       1 4917.15 5136.68       0       0       0       0       0       0
       1 4917.15 5136.68
Encroach Node=184421.0
       1  4840.6    5450       0       0       0       0       0       0
       1  4840.6    5450
Encroach Node=184343.0
       1  4840.6    5785       0       0       0       0       0       0
       1  4840.6    5785
Encroach Node=184265.0
       1 4840.46    5149       0       0       0       0       0       0
       1 4840.46    5149
Encroach Node=184132.4
       1 4894.43 5144.76       0       0       0       0       0       0
       1 4894.43 5144.76
Encroach Node=184097.4
       1 4894.43 5144.76       0       0       0       0       0       0
       1 4894.43 5144.76
Encroach Node=184062.4
       1 4894.43 5144.76       0       0       0       0       0       0
       1 4894.43 5144.76
Encroach Node=183348.2
       1    4885  5055.4       0       0       0       0       0       0
       1    4885  5055.4
Encroach Node=181918.8
       1 4881.22 5090.56       0       0       0       0       0       0
       1 4881.22 5090.56
Encroach Node=181883.8
       1 4881.22 5090.56       0       0       0       0       0       0
       1 4881.22 5090.56
Encroach Node=181848.8
       1 4881.22 5090.56       0       0       0       0       0       0
       1 4881.22 5090.56
Encroach Node=181739.5
       1 4877.63 5121.47       0       0       0       0       0       0
       1 4877.63 5121.47
Encroach Node=181661.5
       1 4877.63 5121.47       0       0       0       0       0       0
       1 4877.63 5121.47
Encroach Node=181583.5
       1 4877.63 5121.47       0       0       0       0       0       0
       1 4877.63 5121.47
Encroach Node=181519.5
       1 4878.53 5100.42       0       0       0       0       0       0
       1 4878.53 5100.42
Encroach Node=181484.5
       1 4878.53 5100.42       0       0       0       0       0       0
       1 4878.53 5100.42
Encroach Node=181449.5
       1 4878.53 5100.42       0       0       0       0       0       0
       1 4878.53 5100.42
Encroach Node=180957.6
       1  4931.9  5058.9       0       0       0       0       0       0
       1  4931.9  5058.9
Encroach Node=179921.2
       1  4929.7  5085.1       0       0       0       0       0       0
       1  4929.7  5085.1
Encroach Node=179126.0
       1  4911.6  5069.1       0       0       0       0       0       0
       1  4911.6  5069.1
Encroach Node=178828.2
       1  4911.6  5084.4       0       0       0       0       0       0
       1  4911.6  5084.4
Encroach Node=178803.2
       1  4911.6  5084.4       0       0       0       0       0       0
       1  4911.6  5084.4
Encroach Node=178778.2
       1  4911.6  5084.4       0       0       0       0       0       0
       1  4911.6  5084.4
Encroach Node=178661.5
       1  4911.3  5081.7       0       0       0       0       0       0
       1  4916.3  5081.7
Encroach Node=178636.5
       1  4911.3  5081.7       0       0       0       0       0       0
       1  4916.3  5081.7
Encroach Node=178611.5
       1  4911.3  5081.7       0       0       0       0       0       0
       1  4916.3  5081.7
Encroach Node=177406.7
       1  4940.9  5101.8       0       0       0       0       0       0
       1  4940.9  5101.8
Encroach Node=176342.1
       1    4888  5053.6       0       0       0       0       0       0
       1    4888  5053.6
Encroach Node=175998.8
       1    4920    5340       0       0       0       0       0       0
       1    4920    5340
Encroach Node=175549.5
       1    4830    5270       0       0       0       0       0       0
       1    4830    5270
Encroach Node=175538.0
       1    4830    5270       0       0       0       0       0       0
       1    4830    5270
Encroach Node=175525.6
       1    4830    5270       0       0       0       0       0       0
       1    4830    5270
Encroach Node=175483.1
       1    4710    5456       0       0       0       0       0       0
       1    4830    5270
Encroach Node=175440.6
       1    4830    5270       0       0       0       0       0       0
       1    4830    5270
Encroach Node=175354.9
       1  4825.7  5250.7       0       0       0       0       0       0
       0       0       0
Encroach Node=175300.3
       1    4830    5285       0       0       0       0       0       0
       0       0       0
Encroach Node=175203.7
       1    4820    5290       0       0       0       0       0       0
       0       0       0
Encroach Node=175146.3
       1  4845.1  5230.1       0       0       0       0       0       0
       0       0       0
Encroach Node=174932.7
       1    4800    5115       0       0       0       0       0       0
       0       0       0
Encroach Node=174086.8
       1    4850    5120       0       0       0       0       0       0
       1    4850    5120
Encroach Node=173023.1
       1    4840  5067.8       0       0       0       0       0       0
       1    4840  5067.8
Encroach Node=172472.6
       1    4910    5130       0       0       0       0       0       0
       1    4910    5130
Encroach Node=171583.6
       1    4865    5135       0       0       0       0       0       0
       1    4865    5135
Encroach Node=170916.5
       1    4850    5150       0       0       0       0       0       0
       1    4850    5150
Encroach Node=170549.0
       1    4830    5150       0       0       0       0       0       0
       1    4830    5150
Encroach Node=170266.6
       1    4795    5220       0       0       0       0       0       0
       1    4795    5220
Encroach Node=170232.1
       1    4795    5220       0       0       0       0       0       0
       1    4795    5220
Encroach Node=170197.6
       1    4795    5220       0       0       0       0       0       0
       1    4795    5220
Encroach Node=169760.8
       1    4780    5220       0       0       0       0       0       0
       1    4780    5220
Encroach Node=169319.2
       1    4625    5250       0       0       0       0       0       0
       1    4625    5250
Encroach Node=169305.2
       1    4625    5250       0       0       0       0       0       0
       1    4625    5250
Encroach Node=169291.2
       1    4625    5250       0       0       0       0       0       0
       1    4625    5250
Encroach Node=169017.5
       1    4725    5140       0       0       0       0       0       0
       1    4725    5140
Encroach Node=168762.1
       1    4800    5200       0       0       0       0       0       0
       1    4800    5200
Encroach Node=168734.1
       1    4800    5200       0       0       0       0       0       0
       1    4800    5200
Encroach Node=168706.1
       1    4800    5200       0       0       0       0       0       0
       1    4800    5200
Encroach Node=168680.5
       1    4876  5124.3       0       0       0       0       0       0
       1    4876  5124.3
Encroach Node=168562.9
       1    4876  5124.3       0       0       0       0       0       0
       1    4876  5124.3
Encroach Node=168445.4
       1    4876  5124.3       0       0       0       0       0       0
       1    4876  5124.3
Encroach Node=168426.4
       1    4876  5120.2       0       0       0       0       0       0
       1    4876  5120.2
Encroach Node=168398.4
       1    4876  5120.2       0       0       0       0       0       0
       1    4876  5120.2
Encroach Node=168370.4
       1    4876  5120.2       0       0       0       0       0       0
       1    4876  5120.2
Encroach Node=168052.4
       1    4500    5400       0       0       0       0       0       0
       1    4500    5400
Encroach Node=167711.6
       1    4200    5400       0       0       0       0       0       0
       1    4200    5400
Encroach Node=167685.1
       1    4200    5400       0       0       0       0       0       0
       1    4200    5400
Encroach Node=167658.6
       1    4200    5400       0       0       0       0       0       0
       1    4200    5400
Encroach Node=166814.8
       1    4050    5120       0       0       0       0       0       0
       1    4050    5120
Encroach Node=165731.4
       1    3950    5115       0       0       0       0       0       0
       1    3950    5115
Encroach Node=164812.5
       1    4120    5200       0       0       0       0       0       0
       1    4120    5200
Encroach Node=164153.5
       1    4125    5210       0       0       0       0       0       0
       1    4125    5210
Encroach Node=163691.0
       1    4250    5200       0       0       0       0       0       0
       1    4250    5200
Encroach Node=163641.0
       1    4250    5200       0       0       0       0       0       0
       1    4250    5200
Encroach Node=163591.0
       1    4250    5200       0       0       0       0       0       0
       1    4250    5200
Encroach Node=163254.1
       1    4290    5200       0       0       0       0       0       0
       1    4290    5200
Encroach Node=163020.2
       1 4283.86    5200       0       0       0       0       0       0
       1 4283.86    5200
Encroach Node=163006.2
       1 4283.86    5200       0       0       0       0       0       0
       1 4283.86    5200
Encroach Node=162992.2
       1 4283.86    5200       0       0       0       0       0       0
       1 4283.86    5200
Encroach Node=162338.1
       1    4250    5285       0       0       0       0       0       0
       1    4250    5285
Encroach Node=161801.4
       1    4045    5750       0       0       0       0       0       0
       1    4045    5750
Encroach Node=160657.9
       1    3700    5830       0       0       0       0       0       0
       1    3700    5830
Encroach Node=160192.5
       1    3500    5595       0       0       0       0       0       0
       1    3500    5595
Encroach Node=159787.1
       1    3300    5400       0       0       0       0       0       0
       1    3300    5400
Encroach Node=159734.6
       1    3300    5400       0       0       0       0       0       0
       1    3300    5400
Encroach Node=159682.1
       1    3500    5400       0       0       0       0       0       0
       1    3500    5400
Encroach Node=158963.8
       1    3490    5455       0       0       0       0       0       0
       1    3490    5455
Encroach Node=157981.7
       1    3715    5795       0       0       0       0       0       0
       1    3715    5795
Encroach Node=156861.1
       1    4315    7150       0       0       0       0       0       0
       1    4315    7150
Encroach Node=156281.6
       1    4510    6000       0       0       0       0       0       0
       1    4510    6000
Encroach Node=155841.8
       1    4525    6000       0       0       0       0       0       0
       1    4525    6000
Encroach Node=155786.8
       1    4525    6000       0       0       0       0       0       0
       1    4525    6000
Encroach Node=155731.8
       1    4525    6000       0       0       0       0       0       0
       1    4525    6000
Encroach Node=155378.8
       1    4862    9141       0       0       0       0       0       0
       1    4862    9141
Encroach Node=155355.8
       1    4862    9141       0       0       0       0       0       0
       1    4862    9141
Encroach Node=155332.8
       1    4862    9141       0       0       0       0       0       0
       1    4862    9141
Encroach Node=155312.4
       1    4862    9141       0       0       0       0       0       0
       1    4862    9141
Encroach Node=155283.9
       1    4862    9141       0       0       0       0       0       0
       1    4862    9141
Encroach Node=155255.4
       1    4862    9141       0       0       0       0       0       0
       1    4862    9141
Encroach Node=155248.9
       1    4862    9141       0       0       0       0       0       0
       1    4862    9141
Encroach Node=155189.1
       1    4862    9141       0       0       0       0       0       0
       1    4862    9141
Encroach Node=155129.3
       1    4862    9141       0       0       0       0       0       0
       1    4862    9141
Encroach Node=155110.5
       1    4862    9141       0       0       0       0       0       0
       1    4862    9141
Encroach Node=155085.5
       1    4862    9141       0       0       0       0       0       0
       1    4862    9141
Encroach Node=155060.5
       1    4862    9141       0       0       0       0       0       0
       1    4862    9141
Encroach Node=154008.5
       1    4300    5700       0       0       0       0       0       0
       1    4300    5700
Encroach Node=152906.6
       1    4800    6450       0       0       0       0       0       0
       1    4800    6450
Encroach Node=151806.5
       1    4850    6950       0       0       0       0       0       0
       1    4850    6950
Encroach Node=150830.2
       1    4600    7000       0       0       0       0       0       0
       1    4600    7000
Encroach Node=149842.1
       1    4775    6600       0       0       0       0       0       0
       1    4775    6600
Encroach Node=148819.5
       1    4600    6150       0       0       0       0       0       0
       1    4600    6150
Encroach Node=147831.4
       1    4780    5480       0       0       0       0       0       0
       1    4780    5480
Encroach Node=146526.5
       1    4430    5345       0       0       0       0       0       0
       1    4430    5345
Encroach Node=145462.0
       1    4450    5300       0       0       0       0       0       0
       1    4450    5300
Encroach Node=145018.0
       1    4450    5300       0       0       0       0       0       0
       1    4450    5300
Encroach Node=144651.8
       1    4400    5280       0       0       0       0       0       0
       1    4400    5280
Encroach Node=144624.3
       1    4400    5280       0       0       0       0       0       0
       1    4400    5280
Encroach Node=144596.8
       1    4400    5280       0       0       0       0       0       0
       1    4400    5280
Encroach Node=144556.0
       1    4400    5280       0       0       0       0       0       0
       1    4400    5280
Encroach Node=144545.0
       1    4400    5280       0       0       0       0       0       0
       1    4400    5280
Encroach Node=144534.0
       1    4400    5280       0       0       0       0       0       0
       1    4400    5280
Encroach Node=143348.1
       1    4050    5350       0       0       0       0       0       0
       1    4050    5350
Encroach Node=142362.0
       1    3500    5130       0       0       0       0       0       0
       1    3500    5130
Encroach Node=142337.0
       1    3500    5130       0       0       0       0       0       0
       1    3500    5130
Encroach Node=142311.7
       1    3500    5130       0       0       0       0       0       0
       1    3500    5130
Encroach Node=142230.2
       1    3500    5130       0       0       0       0       0       0
       1    3500    5130
Encroach Node=142148.7
       1    3500    5130       0       0       0       0       0       0
       1    3500    5130
Encroach Node=142136.2
       1    3500    5130       0       0       0       0       0       0
       1    3500    5130
Encroach Node=142111.2